CRYSTAL
PRIMVEC
  5.763004   0.000000   0.000000
  2.881507   4.990914   0.000000
  2.881507   1.663638   4.705481
PRIMCOORD
14 1
27   1.440752   0.831819   0.588185
27   5.763010   3.327276   2.352740
27   2.881506   3.327276   0.588185
27   2.881506   1.663638   2.940925
27   8.644514   4.990914   3.529111
27   4.322255   0.831819   0.588185
 8   4.163774   2.403957   1.699855
 8   7.045225   5.914233   4.181996
 8   5.763040   3.327292   4.311444
 8   7.362299   2.403957   1.699855
 8   5.763040   5.173964   1.699855
 8   8.644484   4.990897   1.570407
 8  10.243750   5.914233   4.181996
 8   8.644484   3.144226   4.181996
