CRYSTAL
PRIMVEC
 24.451532   0.000000   0.000000
  0.000000   8.150493   0.000000
  0.000000   0.000000   8.150493
PRIMCOORD
46 1
 7   4.027547   5.094058   3.056435
 8   5.177548   5.094058   3.056435
 8   0.111988   3.168504   4.981989
 8   0.111988   4.981989   3.168504
 8   0.111988   7.243751   0.906742
 8   0.111988   0.906742   7.243751
 8   1.925558   4.981989   4.981989
 8   1.925558   3.168504   3.168504
 8   1.925558   0.906742   0.906742
 8   1.925558   7.243751   7.243751
 8   2.149779   5.206127   1.130881
 8   2.149779   2.944366   7.019612
 8   2.149779   1.130881   5.206127
 8   2.149779   7.019612   2.944366
 8  22.301753   4.981989   0.906742
 8  22.301753   3.168504   7.243751
 8  22.301753   0.906742   4.981989
 8  22.301753   7.243751   3.168504
 8  22.525974   2.944366   2.944366
 8  22.525974   5.206127   5.206127
 8  22.525974   7.019612   7.019612
 8  22.525974   1.130881   1.130881
 8  24.339300   5.206127   7.019612
 8  24.339300   1.130881   2.944366
 8  24.339300   7.019612   5.206127
 8  24.339300   2.944366   1.130881
27   0.000000   3.056435   3.056435
27   0.000000   5.094058   5.094058
27   0.000000   7.131681   7.131681
27   0.000000   1.018812   1.018812
27   1.018895   0.000000   4.075247
27   1.018895   4.075247   0.000000
27   2.037546   5.094058   3.056435
27   2.037546   3.056435   5.094058
27   2.037546   1.018812   7.131681
27   2.037546   7.131681   1.018812
27   3.056442   6.112870   6.112870
27   3.056442   2.037623   2.037623
27  21.395091   0.000000   0.000000
27  21.395091   4.075247   4.075247
27  22.413986   3.056435   1.018812
27  22.413986   1.018812   3.056435
27  22.413986   5.094058   7.131681
27  22.413986   7.131681   5.094058
27  23.432637   6.112870   2.037623
27  23.432637   2.037623   6.112870
