CRYSTAL
PRIMVEC
 23.053128   0.000000   0.000000
  0.000000   5.763269   0.000000
  0.000000   0.000000   8.150493
PRIMCOORD
38 1
 7   4.871642   4.322452   5.094058
 8   6.021642   4.322452   5.094058
 8   0.000000   1.599365   7.243751
 8   0.000000   4.163904   7.243751
 8   0.000000   1.282270   2.944366
 8   0.000000   4.480999   2.944366
 8   1.282215   2.881634   0.906742
 8   1.282215   0.000000   1.130881
 8   1.599426   0.000000   4.981989
 8   1.599426   2.881634   5.206127
 8   2.881641   4.480999   3.168504
 8   2.881641   1.282270   3.168504
 8   2.881641   4.163904   7.019612
 8   2.881641   1.599365   7.019612
 8  20.171487   4.480999   3.168504
 8  20.171487   1.282270   3.168504
 8  20.171487   4.163904   7.019612
 8  20.171487   1.599365   7.019612
 8  21.453702   0.000000   4.981989
 8  21.453702   2.881634   5.206127
 8  21.770913   0.000000   1.130881
 8  21.770913   2.881634   0.906742
27   0.000000   0.000000   6.112870
27   0.000000   1.440817   1.018812
27   0.000000   4.322452   1.018812
27   0.000000   2.881634   4.075247
27   1.440821   0.000000   3.056435
27   1.440821   2.881634   7.131681
27   2.881641   2.881634   2.037623
27   2.881641   4.322452   5.094058
27   2.881641   1.440817   5.094058
27   2.881641   0.000000   0.000000
27  20.171487   2.881634   2.037623
27  20.171487   4.322452   5.094058
27  20.171487   1.440817   5.094058
27  20.171487   0.000000   0.000000
27  21.612308   2.881634   7.131681
27  21.612308   0.000000   3.056435
