CRYSTAL
PRIMVEC
  5.763269   0.000000   0.000000
  0.000000   9.982293   0.000000
  0.000000   0.000000  21.175661
PRIMCOORD
46 1
27   0.000000   0.000000   1.058783
27   0.000000   3.327398  17.528788
27   2.881634   8.318544  17.528788
27   2.881634   4.991146   1.058783
27   0.000000   6.654895   0.470523
27   2.881634   1.663749   0.470523
27   4.322452   9.150468  19.881616
27   4.322452   5.822971   3.411611
27   1.440817   0.831824   3.411611
27   1.440817   4.159322  19.881616
27   0.000000   1.663749  19.881616
27   0.000000   8.318544   3.411611
27   2.881634   6.654895  19.881616
27   2.881634   3.327398   3.411611
27   0.000000   3.327398   1.647043
27   0.000000   6.654895  18.116836
27   2.881634   8.318544   1.647043
27   2.881634   1.663749  18.116836
27   1.440817   9.150468  19.881616
27   1.440817   5.822971   3.411611
27   4.322452   4.159322  19.881616
27   4.322452   0.831824   3.411611
 8   0.000000   0.000000  18.899277
 8   0.000000   6.654895   2.429272
 8   2.881634   1.663749   2.429272
 8   2.881634   4.991146  18.899277
 8   1.282270   9.242006   2.299889
 8   1.282270   2.587111  18.769894
 8   4.163904   7.578257  18.769894
 8   4.163904   4.250860   2.299889
 8   0.000000   8.501619  20.993338
 8   2.881634   3.510473  20.993338
 8   4.480999   0.740287  20.993338
 8   1.599365   5.731433  20.993338
 8   1.282270   0.740287  20.993338
 8   4.163904   5.731433  20.993338
 8   0.000000   1.480674   2.299889
 8   0.000000   4.808071  18.769894
 8   2.881634   9.799218  18.769894
 8   2.881634   6.471820   2.299889
 8   0.000000   3.327398  20.863743
 8   2.881634   8.318544  20.863743
 8   4.480999   9.242006   2.299889
 8   4.480999   2.587111  18.769894
 8   1.599365   7.578257  18.769894
 8   1.599365   4.250860   2.299889
